contact_node2node.out
Tests node 2 node contact between two elements - tests both penalty and Lagrange enforcement
# Example of node to node contact with two elements
#  
#    /*  4 - 3  <->  8 - 7
#     *  |   |       |   |
#     *  1 - 2  <->  5 - 6
#     */
StaticStructural nsteps 5 rtolf 1.0e-6 rtold -1.0 nmodules 1 maxiter 5 manrmsteps 1
#vtkxml 1 tstep_all dofman_all element_all primvars 1 1  vars 1 1
errorcheck 1 
domain 2dPlaneStress
OutputManager tstep_all dofman_all element_all
ndofman 8 nelem 2 ncrosssect  1 nmat 1 nbc 2 nic 0 nltf 2 ncontactman 1 nset 2
node 1 coords 3  0.0   0.0 0.0   
node 2 coords 3  1.0   0.0 0.0     
node 3 coords 3  1.0   2.0 0.0     
node 4 coords 3  0.0   2.0 0.0     
node 5 coords 3  1.001   0.0 0.0     
node 6 coords 3  2.001   0.0 0.0     
node 7 coords 3  2.001   2.0 0.0     
node 8 coords 3  1.001   2.0 0.0    
PlaneStress2d 1 nodes 4 1 2 3 4  crossSect 1 mat 1
PlaneStress2d 2 nodes 4 5 6 7 8  crossSect 1 mat 1
SimpleCS 1 thick 0.15
IsoLE 1 d 0. E 1.0e3 n 0.25 tAlpha 0.000012
BoundaryCondition 1 loadTimeFunction 2 values 2  0.000.0 0.0 dofs 2  1 2 set 1    
BoundaryCondition 2 loadTimeFunction 2 values 2  -0.002 0.0 dofs 2  1 2 set 2
ConstantFunction 1 f(t) 1.0
PiecewiseLinFunction 2 nPoints 2  t 2  0. 4 f(t) 2  1.0 4.0
Set 1 nodes 2 1 4
Set 2 nodes 2 6 7
#Set 2 nodes 4 3 6 7 8
ContactManager 1  numcontactdef 2
#
# add contact definition
#CDef_Node2NodeP  1 masternodes 2  2 3   slavenodes 2  5 8
#CDef_Node2NodeL  1 masternodes 2  2 3   slavenodes 2  5 8
#
# double test
CDef_Node2NodeP  1 masternodes 1  2   slavenodes 1  5
CDef_Node2NodeL  2 masternodes 1  3   slavenodes 1  8
#
#%BEGIN_CHECK% tolerance 1.e-3
#NODE tStep 5 number 2 dof 1 unknown d value -0.00349973
#NODE tStep 5 number 2 dof 2 unknown d value -0.00131238
#NODE tStep 5 number 3 dof 1 unknown d value -0.0035
#NODE tStep 5 number 3 dof 2 unknown d value 0.00131252
#NODE tStep 5 number 5 dof 1 unknown d value -0.00450027
#NODE tStep 5 number 5 dof 2 unknown d value -0.00131238
#NODE tStep 5 number 8 dof 1 unknown d value -0.0045
#NODE tStep 5 number 8 dof 2 unknown d value 0.00131252
#NODE tStep 5 number 8 dof 23 unknown d value -0.533737
#ELEMENT tStep 5 number 1 gp 1 keyword 1 component 1 value -3.45725
#ELEMENT tStep 5 number 1 gp 1 keyword 1 component 2 value 0.170785
#ELEMENT tStep 5 number 1 gp 1 keyword 1 component 3 value 0
#ELEMENT tStep 5 number 1 gp 1 keyword 1 component 4 value 0
#ELEMENT tStep 5 number 1 gp 1 keyword 1 component 5 value 0
#ELEMENT tStep 5 number 1 gp 1 keyword 1 component 6 value -7.56319e-09
#ELEMENT tStep 5 number 1 gp 2 keyword 1 component 1 value -3.45708
#ELEMENT tStep 5 number 1 gp 2 keyword 1 component 2 value 0.170826
#ELEMENT tStep 5 number 1 gp 2 keyword 1 component 3 value 0
#ELEMENT tStep 5 number 1 gp 2 keyword 1 component 4 value 0
#ELEMENT tStep 5 number 1 gp 2 keyword 1 component 5 value 0
#ELEMENT tStep 5 number 1 gp 2 keyword 1 component 6 value -7.56319e-09
#ELEMENT tStep 5 number 1 gp 3 keyword 1 component 1 value -3.65931
#ELEMENT tStep 5 number 1 gp 3 keyword 1 component 2 value -0.637475
#ELEMENT tStep 5 number 1 gp 3 keyword 1 component 3 value 0
#ELEMENT tStep 5 number 1 gp 3 keyword 1 component 4 value 0
#ELEMENT tStep 5 number 1 gp 3 keyword 1 component 5 value 0
#ELEMENT tStep 5 number 1 gp 3 keyword 1 component 6 value -7.56319e-09
#ELEMENT tStep 5 number 1 gp 4 keyword 1 component 1 value -3.65915
#ELEMENT tStep 5 number 1 gp 4 keyword 1 component 2 value -0.637434
# ... 28 like lines cut
#%END_CHECK%




